
---------- Begin Simulation Statistics ----------
simSeconds                                   0.027550                       # Number of seconds simulated (Second)
simTicks                                  27550066000                       # Number of ticks simulated (Tick)
finalTick                                 27550066000                       # Number of ticks from beginning of simulation (restored from checkpoints and never reset) (Tick)
simFreq                                  1000000000000                       # The number of ticks per simulated second ((Tick/Second))
hostSeconds                                     99.16                       # Real time elapsed on the host (Second)
hostTickRate                                277822655                       # The number of ticks simulated per host second (ticks/s) ((Tick/Second))
hostMemory                                     697652                       # Number of bytes of host memory used (Byte)
simInsts                                     35860524                       # Number of instructions simulated (Count)
simOps                                       69608250                       # Number of ops (including micro ops) simulated (Count)
hostInstRate                                   361627                       # Simulator instruction rate (inst/s) ((Count/Second))
hostOpRate                                     701949                       # Simulator op (including micro ops) rate (op/s) ((Count/Second))
system.clk_domain.clock                          1000                       # Clock period in ticks (Tick)
system.clk_domain.voltage_domain.voltage            1                       # Voltage in Volts (Volt)
system.cpu.numCycles                         27550067                       # Number of cpu cycles simulated (Cycle)
system.cpu.cpi                               0.768256                       # CPI: cycles per instruction (core level) ((Cycle/Count))
system.cpu.ipc                               1.301649                       # IPC: instructions per cycle (core level) ((Count/Cycle))
system.cpu.numWorkItemsStarted                      0                       # Number of work items this cpu started (Count)
system.cpu.numWorkItemsCompleted                    0                       # Number of work items this cpu completed (Count)
system.cpu.instsAdded                        86975262                       # Number of instructions added to the IQ (excludes non-spec) (Count)
system.cpu.nonSpecInstsAdded                      202                       # Number of non-speculative instructions added to the IQ (Count)
system.cpu.instsIssued                       81983351                       # Number of instructions issued (Count)
system.cpu.squashedInstsIssued                 265762                       # Number of squashed instructions issued (Count)
system.cpu.squashedInstsExamined             17367208                       # Number of squashed instructions iterated over during squash; mainly for profiling (Count)
system.cpu.squashedOperandsExamined          17535258                       # Number of squashed operands that are examined and possibly removed from graph (Count)
system.cpu.squashedNonSpecRemoved                  94                       # Number of squashed non-spec instructions that were removed (Count)
system.cpu.numIssuedDist::samples            27529007                       # Number of insts issued each cycle (Count)
system.cpu.numIssuedDist::mean               2.978071                       # Number of insts issued each cycle (Count)
system.cpu.numIssuedDist::stdev              2.797946                       # Number of insts issued each cycle (Count)
system.cpu.numIssuedDist::underflows                0      0.00%      0.00% # Number of insts issued each cycle (Count)
system.cpu.numIssuedDist::0                   8612010     31.28%     31.28% # Number of insts issued each cycle (Count)
system.cpu.numIssuedDist::1                   2298018      8.35%     39.63% # Number of insts issued each cycle (Count)
system.cpu.numIssuedDist::2                   3197124     11.61%     51.24% # Number of insts issued each cycle (Count)
system.cpu.numIssuedDist::3                   2919459     10.61%     61.85% # Number of insts issued each cycle (Count)
system.cpu.numIssuedDist::4                   1792337      6.51%     68.36% # Number of insts issued each cycle (Count)
system.cpu.numIssuedDist::5                   2014765      7.32%     75.68% # Number of insts issued each cycle (Count)
system.cpu.numIssuedDist::6                   2424214      8.81%     84.49% # Number of insts issued each cycle (Count)
system.cpu.numIssuedDist::7                   1424389      5.17%     89.66% # Number of insts issued each cycle (Count)
system.cpu.numIssuedDist::8                   2846691     10.34%    100.00% # Number of insts issued each cycle (Count)
system.cpu.numIssuedDist::overflows                 0      0.00%    100.00% # Number of insts issued each cycle (Count)
system.cpu.numIssuedDist::min_value                 0                       # Number of insts issued each cycle (Count)
system.cpu.numIssuedDist::max_value                 8                       # Number of insts issued each cycle (Count)
system.cpu.numIssuedDist::total              27529007                       # Number of insts issued each cycle (Count)
system.cpu.statFuBusy::No_OpClass                   0      0.00%      0.00% # attempts to use FU when none available (Count)
system.cpu.statFuBusy::IntAlu                 1808007     57.93%     57.93% # attempts to use FU when none available (Count)
system.cpu.statFuBusy::IntMult                      0      0.00%     57.93% # attempts to use FU when none available (Count)
system.cpu.statFuBusy::IntDiv                       0      0.00%     57.93% # attempts to use FU when none available (Count)
system.cpu.statFuBusy::FloatAdd                     0      0.00%     57.93% # attempts to use FU when none available (Count)
system.cpu.statFuBusy::FloatCmp                     0      0.00%     57.93% # attempts to use FU when none available (Count)
system.cpu.statFuBusy::FloatCvt                     0      0.00%     57.93% # attempts to use FU when none available (Count)
system.cpu.statFuBusy::FloatMult                    0      0.00%     57.93% # attempts to use FU when none available (Count)
system.cpu.statFuBusy::FloatMultAcc                 0      0.00%     57.93% # attempts to use FU when none available (Count)
system.cpu.statFuBusy::FloatDiv                     0      0.00%     57.93% # attempts to use FU when none available (Count)
system.cpu.statFuBusy::FloatMisc                    0      0.00%     57.93% # attempts to use FU when none available (Count)
system.cpu.statFuBusy::FloatSqrt                    0      0.00%     57.93% # attempts to use FU when none available (Count)
system.cpu.statFuBusy::SimdAdd                  75229      2.41%     60.34% # attempts to use FU when none available (Count)
system.cpu.statFuBusy::SimdAddAcc                   0      0.00%     60.34% # attempts to use FU when none available (Count)
system.cpu.statFuBusy::SimdAlu                     45      0.00%     60.34% # attempts to use FU when none available (Count)
system.cpu.statFuBusy::SimdCmp                      0      0.00%     60.34% # attempts to use FU when none available (Count)
system.cpu.statFuBusy::SimdCvt                 685191     21.95%     82.29% # attempts to use FU when none available (Count)
system.cpu.statFuBusy::SimdMisc                550871     17.65%     99.94% # attempts to use FU when none available (Count)
system.cpu.statFuBusy::SimdMult                     0      0.00%     99.94% # attempts to use FU when none available (Count)
system.cpu.statFuBusy::SimdMultAcc                  0      0.00%     99.94% # attempts to use FU when none available (Count)
system.cpu.statFuBusy::SimdMatMultAcc               0      0.00%     99.94% # attempts to use FU when none available (Count)
system.cpu.statFuBusy::SimdShift                  178      0.01%     99.95% # attempts to use FU when none available (Count)
system.cpu.statFuBusy::SimdShiftAcc                 0      0.00%     99.95% # attempts to use FU when none available (Count)
system.cpu.statFuBusy::SimdDiv                      0      0.00%     99.95% # attempts to use FU when none available (Count)
system.cpu.statFuBusy::SimdSqrt                     0      0.00%     99.95% # attempts to use FU when none available (Count)
system.cpu.statFuBusy::SimdFloatAdd                 0      0.00%     99.95% # attempts to use FU when none available (Count)
system.cpu.statFuBusy::SimdFloatAlu                 0      0.00%     99.95% # attempts to use FU when none available (Count)
system.cpu.statFuBusy::SimdFloatCmp                 0      0.00%     99.95% # attempts to use FU when none available (Count)
system.cpu.statFuBusy::SimdFloatCvt                 0      0.00%     99.95% # attempts to use FU when none available (Count)
system.cpu.statFuBusy::SimdFloatDiv                 0      0.00%     99.95% # attempts to use FU when none available (Count)
system.cpu.statFuBusy::SimdFloatMisc                0      0.00%     99.95% # attempts to use FU when none available (Count)
system.cpu.statFuBusy::SimdFloatMult                0      0.00%     99.95% # attempts to use FU when none available (Count)
system.cpu.statFuBusy::SimdFloatMultAcc             0      0.00%     99.95% # attempts to use FU when none available (Count)
system.cpu.statFuBusy::SimdFloatMatMultAcc            0      0.00%     99.95% # attempts to use FU when none available (Count)
system.cpu.statFuBusy::SimdFloatSqrt                0      0.00%     99.95% # attempts to use FU when none available (Count)
system.cpu.statFuBusy::SimdReduceAdd                0      0.00%     99.95% # attempts to use FU when none available (Count)
system.cpu.statFuBusy::SimdReduceAlu                0      0.00%     99.95% # attempts to use FU when none available (Count)
system.cpu.statFuBusy::SimdReduceCmp                0      0.00%     99.95% # attempts to use FU when none available (Count)
system.cpu.statFuBusy::SimdFloatReduceAdd            0      0.00%     99.95% # attempts to use FU when none available (Count)
system.cpu.statFuBusy::SimdFloatReduceCmp            0      0.00%     99.95% # attempts to use FU when none available (Count)
system.cpu.statFuBusy::SimdAes                      0      0.00%     99.95% # attempts to use FU when none available (Count)
system.cpu.statFuBusy::SimdAesMix                   0      0.00%     99.95% # attempts to use FU when none available (Count)
system.cpu.statFuBusy::SimdSha1Hash                 0      0.00%     99.95% # attempts to use FU when none available (Count)
system.cpu.statFuBusy::SimdSha1Hash2                0      0.00%     99.95% # attempts to use FU when none available (Count)
system.cpu.statFuBusy::SimdSha256Hash               0      0.00%     99.95% # attempts to use FU when none available (Count)
system.cpu.statFuBusy::SimdSha256Hash2              0      0.00%     99.95% # attempts to use FU when none available (Count)
system.cpu.statFuBusy::SimdShaSigma2                0      0.00%     99.95% # attempts to use FU when none available (Count)
system.cpu.statFuBusy::SimdShaSigma3                0      0.00%     99.95% # attempts to use FU when none available (Count)
system.cpu.statFuBusy::SimdSha3                     0      0.00%     99.95% # attempts to use FU when none available (Count)
system.cpu.statFuBusy::SimdSm4e                     0      0.00%     99.95% # attempts to use FU when none available (Count)
system.cpu.statFuBusy::SimdCrc                      0      0.00%     99.95% # attempts to use FU when none available (Count)
system.cpu.statFuBusy::SimdPredAlu                  0      0.00%     99.95% # attempts to use FU when none available (Count)
system.cpu.statFuBusy::SimdDotProd                  0      0.00%     99.95% # attempts to use FU when none available (Count)
system.cpu.statFuBusy::Matrix                       0      0.00%     99.95% # attempts to use FU when none available (Count)
system.cpu.statFuBusy::MatrixMov                    0      0.00%     99.95% # attempts to use FU when none available (Count)
system.cpu.statFuBusy::MatrixOP                     0      0.00%     99.95% # attempts to use FU when none available (Count)
system.cpu.statFuBusy::MemRead                   1259      0.04%     99.99% # attempts to use FU when none available (Count)
system.cpu.statFuBusy::MemWrite                   307      0.01%    100.00% # attempts to use FU when none available (Count)
system.cpu.statFuBusy::FloatMemRead                72      0.00%    100.00% # attempts to use FU when none available (Count)
system.cpu.statFuBusy::FloatMemWrite               74      0.00%    100.00% # attempts to use FU when none available (Count)
system.cpu.statFuBusy::InstPrefetch                 0      0.00%    100.00% # attempts to use FU when none available (Count)
system.cpu.statFuBusy::SimdUnitStrideLoad            0      0.00%    100.00% # attempts to use FU when none available (Count)
system.cpu.statFuBusy::SimdUnitStrideStore            0      0.00%    100.00% # attempts to use FU when none available (Count)
system.cpu.statFuBusy::SimdUnitStrideMaskLoad            0      0.00%    100.00% # attempts to use FU when none available (Count)
system.cpu.statFuBusy::SimdUnitStrideMaskStore            0      0.00%    100.00% # attempts to use FU when none available (Count)
system.cpu.statFuBusy::SimdStridedLoad              0      0.00%    100.00% # attempts to use FU when none available (Count)
system.cpu.statFuBusy::SimdStridedStore             0      0.00%    100.00% # attempts to use FU when none available (Count)
system.cpu.statFuBusy::SimdIndexedLoad              0      0.00%    100.00% # attempts to use FU when none available (Count)
system.cpu.statFuBusy::SimdIndexedStore             0      0.00%    100.00% # attempts to use FU when none available (Count)
system.cpu.statFuBusy::SimdWholeRegisterLoad            0      0.00%    100.00% # attempts to use FU when none available (Count)
system.cpu.statFuBusy::SimdWholeRegisterStore            0      0.00%    100.00% # attempts to use FU when none available (Count)
system.cpu.statFuBusy::SimdUnitStrideFaultOnlyFirstLoad            0      0.00%    100.00% # attempts to use FU when none available (Count)
system.cpu.statFuBusy::SimdUnitStrideSegmentedLoad            0      0.00%    100.00% # attempts to use FU when none available (Count)
system.cpu.statFuBusy::SimdUnitStrideSegmentedStore            0      0.00%    100.00% # attempts to use FU when none available (Count)
system.cpu.statFuBusy::SimdUnitStrideSegmentedFaultOnlyFirstLoad            0      0.00%    100.00% # attempts to use FU when none available (Count)
system.cpu.statFuBusy::SimdStrideSegmentedLoad            0      0.00%    100.00% # attempts to use FU when none available (Count)
system.cpu.statFuBusy::SimdStrideSegmentedStore            0      0.00%    100.00% # attempts to use FU when none available (Count)
system.cpu.statFuBusy::SimdExt                      0      0.00%    100.00% # attempts to use FU when none available (Count)
system.cpu.statFuBusy::SimdFloatExt                 0      0.00%    100.00% # attempts to use FU when none available (Count)
system.cpu.statFuBusy::SimdConfig                   0      0.00%    100.00% # attempts to use FU when none available (Count)
system.cpu.statFuBusy::SimdBf16Add                  0      0.00%    100.00% # attempts to use FU when none available (Count)
system.cpu.statFuBusy::SimdBf16Cmp                  0      0.00%    100.00% # attempts to use FU when none available (Count)
system.cpu.statFuBusy::SimdBf16Cvt                  0      0.00%    100.00% # attempts to use FU when none available (Count)
system.cpu.statFuBusy::SimdBf16DotProd              0      0.00%    100.00% # attempts to use FU when none available (Count)
system.cpu.statFuBusy::SimdBf16MatMultAcc            0      0.00%    100.00% # attempts to use FU when none available (Count)
system.cpu.statFuBusy::SimdBf16Mult                 0      0.00%    100.00% # attempts to use FU when none available (Count)
system.cpu.statFuBusy::SimdBf16MultAcc              0      0.00%    100.00% # attempts to use FU when none available (Count)
system.cpu.statFuBusy::Bf16Cvt                      0      0.00%    100.00% # attempts to use FU when none available (Count)
system.cpu.statFuBusy::System                       0      0.00%    100.00% # attempts to use FU when none available (Count)
system.cpu.issuedInstType_0::No_OpClass        422310      1.03%      1.03% # Number of instructions issued per FU type, per thread (Count)
system.cpu.issuedInstType_0::IntAlu          28398958     69.28%     70.31% # Number of instructions issued per FU type, per thread (Count)
system.cpu.issuedInstType_0::IntMult          1049592      2.56%     72.87% # Number of instructions issued per FU type, per thread (Count)
system.cpu.issuedInstType_0::IntDiv              1573      0.00%     72.88% # Number of instructions issued per FU type, per thread (Count)
system.cpu.issuedInstType_0::FloatAdd          254683      0.62%     73.50% # Number of instructions issued per FU type, per thread (Count)
system.cpu.issuedInstType_0::FloatCmp               0      0.00%     73.50% # Number of instructions issued per FU type, per thread (Count)
system.cpu.issuedInstType_0::FloatCvt               0      0.00%     73.50% # Number of instructions issued per FU type, per thread (Count)
system.cpu.issuedInstType_0::FloatMult              0      0.00%     73.50% # Number of instructions issued per FU type, per thread (Count)
system.cpu.issuedInstType_0::FloatMultAcc            0      0.00%     73.50% # Number of instructions issued per FU type, per thread (Count)
system.cpu.issuedInstType_0::FloatDiv               0      0.00%     73.50% # Number of instructions issued per FU type, per thread (Count)
system.cpu.issuedInstType_0::FloatMisc              0      0.00%     73.50% # Number of instructions issued per FU type, per thread (Count)
system.cpu.issuedInstType_0::FloatSqrt              0      0.00%     73.50% # Number of instructions issued per FU type, per thread (Count)
system.cpu.issuedInstType_0::SimdAdd          2635766      6.43%     79.93% # Number of instructions issued per FU type, per thread (Count)
system.cpu.issuedInstType_0::SimdAddAcc             0      0.00%     79.93% # Number of instructions issued per FU type, per thread (Count)
system.cpu.issuedInstType_0::SimdAlu          1609959      3.93%     83.85% # Number of instructions issued per FU type, per thread (Count)
system.cpu.issuedInstType_0::SimdCmp                0      0.00%     83.85% # Number of instructions issued per FU type, per thread (Count)
system.cpu.issuedInstType_0::SimdCvt          1072725      2.62%     86.47% # Number of instructions issued per FU type, per thread (Count)
system.cpu.issuedInstType_0::SimdMisc         2098832      5.12%     91.59% # Number of instructions issued per FU type, per thread (Count)
system.cpu.issuedInstType_0::SimdMult               0      0.00%     91.59% # Number of instructions issued per FU type, per thread (Count)
system.cpu.issuedInstType_0::SimdMultAcc            0      0.00%     91.59% # Number of instructions issued per FU type, per thread (Count)
system.cpu.issuedInstType_0::SimdMatMultAcc            0      0.00%     91.59% # Number of instructions issued per FU type, per thread (Count)
system.cpu.issuedInstType_0::SimdShift          16019      0.04%     91.63% # Number of instructions issued per FU type, per thread (Count)
system.cpu.issuedInstType_0::SimdShiftAcc            0      0.00%     91.63% # Number of instructions issued per FU type, per thread (Count)
system.cpu.issuedInstType_0::SimdDiv                0      0.00%     91.63% # Number of instructions issued per FU type, per thread (Count)
system.cpu.issuedInstType_0::SimdSqrt               0      0.00%     91.63% # Number of instructions issued per FU type, per thread (Count)
system.cpu.issuedInstType_0::SimdFloatAdd            0      0.00%     91.63% # Number of instructions issued per FU type, per thread (Count)
system.cpu.issuedInstType_0::SimdFloatAlu            0      0.00%     91.63% # Number of instructions issued per FU type, per thread (Count)
system.cpu.issuedInstType_0::SimdFloatCmp            0      0.00%     91.63% # Number of instructions issued per FU type, per thread (Count)
system.cpu.issuedInstType_0::SimdFloatCvt            0      0.00%     91.63% # Number of instructions issued per FU type, per thread (Count)
system.cpu.issuedInstType_0::SimdFloatDiv            0      0.00%     91.63% # Number of instructions issued per FU type, per thread (Count)
system.cpu.issuedInstType_0::SimdFloatMisc            0      0.00%     91.63% # Number of instructions issued per FU type, per thread (Count)
system.cpu.issuedInstType_0::SimdFloatMult            0      0.00%     91.63% # Number of instructions issued per FU type, per thread (Count)
system.cpu.issuedInstType_0::SimdFloatMultAcc            0      0.00%     91.63% # Number of instructions issued per FU type, per thread (Count)
system.cpu.issuedInstType_0::SimdFloatMatMultAcc            0      0.00%     91.63% # Number of instructions issued per FU type, per thread (Count)
system.cpu.issuedInstType_0::SimdFloatSqrt            0      0.00%     91.63% # Number of instructions issued per FU type, per thread (Count)
system.cpu.issuedInstType_0::SimdReduceAdd            0      0.00%     91.63% # Number of instructions issued per FU type, per thread (Count)
system.cpu.issuedInstType_0::SimdReduceAlu            0      0.00%     91.63% # Number of instructions issued per FU type, per thread (Count)
system.cpu.issuedInstType_0::SimdReduceCmp            0      0.00%     91.63% # Number of instructions issued per FU type, per thread (Count)
system.cpu.issuedInstType_0::SimdFloatReduceAdd            0      0.00%     91.63% # Number of instructions issued per FU type, per thread (Count)
system.cpu.issuedInstType_0::SimdFloatReduceCmp            0      0.00%     91.63% # Number of instructions issued per FU type, per thread (Count)
system.cpu.issuedInstType_0::SimdAes                0      0.00%     91.63% # Number of instructions issued per FU type, per thread (Count)
system.cpu.issuedInstType_0::SimdAesMix             0      0.00%     91.63% # Number of instructions issued per FU type, per thread (Count)
system.cpu.issuedInstType_0::SimdSha1Hash            0      0.00%     91.63% # Number of instructions issued per FU type, per thread (Count)
system.cpu.issuedInstType_0::SimdSha1Hash2            0      0.00%     91.63% # Number of instructions issued per FU type, per thread (Count)
system.cpu.issuedInstType_0::SimdSha256Hash            0      0.00%     91.63% # Number of instructions issued per FU type, per thread (Count)
system.cpu.issuedInstType_0::SimdSha256Hash2            0      0.00%     91.63% # Number of instructions issued per FU type, per thread (Count)
system.cpu.issuedInstType_0::SimdShaSigma2            0      0.00%     91.63% # Number of instructions issued per FU type, per thread (Count)
system.cpu.issuedInstType_0::SimdShaSigma3            0      0.00%     91.63% # Number of instructions issued per FU type, per thread (Count)
system.cpu.issuedInstType_0::SimdSha3               0      0.00%     91.63% # Number of instructions issued per FU type, per thread (Count)
system.cpu.issuedInstType_0::SimdSm4e               0      0.00%     91.63% # Number of instructions issued per FU type, per thread (Count)
system.cpu.issuedInstType_0::SimdCrc                0      0.00%     91.63% # Number of instructions issued per FU type, per thread (Count)
system.cpu.issuedInstType_0::SimdPredAlu            0      0.00%     91.63% # Number of instructions issued per FU type, per thread (Count)
system.cpu.issuedInstType_0::SimdDotProd            0      0.00%     91.63% # Number of instructions issued per FU type, per thread (Count)
system.cpu.issuedInstType_0::Matrix                 0      0.00%     91.63% # Number of instructions issued per FU type, per thread (Count)
system.cpu.issuedInstType_0::MatrixMov              0      0.00%     91.63% # Number of instructions issued per FU type, per thread (Count)
system.cpu.issuedInstType_0::MatrixOP               0      0.00%     91.63% # Number of instructions issued per FU type, per thread (Count)
system.cpu.issuedInstType_0::MemRead          1088879      2.66%     94.29% # Number of instructions issued per FU type, per thread (Count)
system.cpu.issuedInstType_0::MemWrite           17345      0.04%     94.33% # Number of instructions issued per FU type, per thread (Count)
system.cpu.issuedInstType_0::FloatMemRead      1783914      4.35%     98.68% # Number of instructions issued per FU type, per thread (Count)
system.cpu.issuedInstType_0::FloatMemWrite       540565      1.32%    100.00% # Number of instructions issued per FU type, per thread (Count)
system.cpu.issuedInstType_0::InstPrefetch            0      0.00%    100.00% # Number of instructions issued per FU type, per thread (Count)
system.cpu.issuedInstType_0::SimdUnitStrideLoad            0      0.00%    100.00% # Number of instructions issued per FU type, per thread (Count)
system.cpu.issuedInstType_0::SimdUnitStrideStore            0      0.00%    100.00% # Number of instructions issued per FU type, per thread (Count)
system.cpu.issuedInstType_0::SimdUnitStrideMaskLoad            0      0.00%    100.00% # Number of instructions issued per FU type, per thread (Count)
system.cpu.issuedInstType_0::SimdUnitStrideMaskStore            0      0.00%    100.00% # Number of instructions issued per FU type, per thread (Count)
system.cpu.issuedInstType_0::SimdStridedLoad            0      0.00%    100.00% # Number of instructions issued per FU type, per thread (Count)
system.cpu.issuedInstType_0::SimdStridedStore            0      0.00%    100.00% # Number of instructions issued per FU type, per thread (Count)
system.cpu.issuedInstType_0::SimdIndexedLoad            0      0.00%    100.00% # Number of instructions issued per FU type, per thread (Count)
system.cpu.issuedInstType_0::SimdIndexedStore            0      0.00%    100.00% # Number of instructions issued per FU type, per thread (Count)
system.cpu.issuedInstType_0::SimdWholeRegisterLoad            0      0.00%    100.00% # Number of instructions issued per FU type, per thread (Count)
system.cpu.issuedInstType_0::SimdWholeRegisterStore            0      0.00%    100.00% # Number of instructions issued per FU type, per thread (Count)
system.cpu.issuedInstType_0::SimdUnitStrideFaultOnlyFirstLoad            0      0.00%    100.00% # Number of instructions issued per FU type, per thread (Count)
system.cpu.issuedInstType_0::SimdUnitStrideSegmentedLoad            0      0.00%    100.00% # Number of instructions issued per FU type, per thread (Count)
system.cpu.issuedInstType_0::SimdUnitStrideSegmentedStore            0      0.00%    100.00% # Number of instructions issued per FU type, per thread (Count)
system.cpu.issuedInstType_0::SimdUnitStrideSegmentedFaultOnlyFirstLoad            0      0.00%    100.00% # Number of instructions issued per FU type, per thread (Count)
system.cpu.issuedInstType_0::SimdStrideSegmentedLoad            0      0.00%    100.00% # Number of instructions issued per FU type, per thread (Count)
system.cpu.issuedInstType_0::SimdStrideSegmentedStore            0      0.00%    100.00% # Number of instructions issued per FU type, per thread (Count)
system.cpu.issuedInstType_0::SimdExt                0      0.00%    100.00% # Number of instructions issued per FU type, per thread (Count)
system.cpu.issuedInstType_0::SimdFloatExt            0      0.00%    100.00% # Number of instructions issued per FU type, per thread (Count)
system.cpu.issuedInstType_0::SimdConfig             0      0.00%    100.00% # Number of instructions issued per FU type, per thread (Count)
system.cpu.issuedInstType_0::SimdBf16Add            0      0.00%    100.00% # Number of instructions issued per FU type, per thread (Count)
system.cpu.issuedInstType_0::SimdBf16Cmp            0      0.00%    100.00% # Number of instructions issued per FU type, per thread (Count)
system.cpu.issuedInstType_0::SimdBf16Cvt            0      0.00%    100.00% # Number of instructions issued per FU type, per thread (Count)
system.cpu.issuedInstType_0::SimdBf16DotProd            0      0.00%    100.00% # Number of instructions issued per FU type, per thread (Count)
system.cpu.issuedInstType_0::SimdBf16MatMultAcc            0      0.00%    100.00% # Number of instructions issued per FU type, per thread (Count)
system.cpu.issuedInstType_0::SimdBf16Mult            0      0.00%    100.00% # Number of instructions issued per FU type, per thread (Count)
system.cpu.issuedInstType_0::SimdBf16MultAcc            0      0.00%    100.00% # Number of instructions issued per FU type, per thread (Count)
system.cpu.issuedInstType_0::Bf16Cvt                0      0.00%    100.00% # Number of instructions issued per FU type, per thread (Count)
system.cpu.issuedInstType_0::System                 0      0.00%    100.00% # Number of instructions issued per FU type, per thread (Count)
system.cpu.issuedInstType_0::total           40991120                       # Number of instructions issued per FU type, per thread (Count)
system.cpu.issuedInstType_1::No_OpClass        437265      1.07%      1.07% # Number of instructions issued per FU type, per thread (Count)
system.cpu.issuedInstType_1::IntAlu          28392495     69.26%     70.33% # Number of instructions issued per FU type, per thread (Count)
system.cpu.issuedInstType_1::IntMult          1049690      2.56%     72.89% # Number of instructions issued per FU type, per thread (Count)
system.cpu.issuedInstType_1::IntDiv              1564      0.00%     72.89% # Number of instructions issued per FU type, per thread (Count)
system.cpu.issuedInstType_1::FloatAdd          242647      0.59%     73.49% # Number of instructions issued per FU type, per thread (Count)
system.cpu.issuedInstType_1::FloatCmp               0      0.00%     73.49% # Number of instructions issued per FU type, per thread (Count)
system.cpu.issuedInstType_1::FloatCvt               0      0.00%     73.49% # Number of instructions issued per FU type, per thread (Count)
system.cpu.issuedInstType_1::FloatMult              0      0.00%     73.49% # Number of instructions issued per FU type, per thread (Count)
system.cpu.issuedInstType_1::FloatMultAcc            0      0.00%     73.49% # Number of instructions issued per FU type, per thread (Count)
system.cpu.issuedInstType_1::FloatDiv               0      0.00%     73.49% # Number of instructions issued per FU type, per thread (Count)
system.cpu.issuedInstType_1::FloatMisc              0      0.00%     73.49% # Number of instructions issued per FU type, per thread (Count)
system.cpu.issuedInstType_1::FloatSqrt              0      0.00%     73.49% # Number of instructions issued per FU type, per thread (Count)
system.cpu.issuedInstType_1::SimdAdd          2635911      6.43%     79.92% # Number of instructions issued per FU type, per thread (Count)
system.cpu.issuedInstType_1::SimdAddAcc             0      0.00%     79.92% # Number of instructions issued per FU type, per thread (Count)
system.cpu.issuedInstType_1::SimdAlu          1609518      3.93%     83.84% # Number of instructions issued per FU type, per thread (Count)
system.cpu.issuedInstType_1::SimdCmp                0      0.00%     83.84% # Number of instructions issued per FU type, per thread (Count)
system.cpu.issuedInstType_1::SimdCvt          1073156      2.62%     86.46% # Number of instructions issued per FU type, per thread (Count)
system.cpu.issuedInstType_1::SimdMisc         2098778      5.12%     91.58% # Number of instructions issued per FU type, per thread (Count)
system.cpu.issuedInstType_1::SimdMult               0      0.00%     91.58% # Number of instructions issued per FU type, per thread (Count)
system.cpu.issuedInstType_1::SimdMultAcc            0      0.00%     91.58% # Number of instructions issued per FU type, per thread (Count)
system.cpu.issuedInstType_1::SimdMatMultAcc            0      0.00%     91.58% # Number of instructions issued per FU type, per thread (Count)
system.cpu.issuedInstType_1::SimdShift          19947      0.05%     91.63% # Number of instructions issued per FU type, per thread (Count)
system.cpu.issuedInstType_1::SimdShiftAcc            0      0.00%     91.63% # Number of instructions issued per FU type, per thread (Count)
system.cpu.issuedInstType_1::SimdDiv                0      0.00%     91.63% # Number of instructions issued per FU type, per thread (Count)
system.cpu.issuedInstType_1::SimdSqrt               0      0.00%     91.63% # Number of instructions issued per FU type, per thread (Count)
system.cpu.issuedInstType_1::SimdFloatAdd            0      0.00%     91.63% # Number of instructions issued per FU type, per thread (Count)
system.cpu.issuedInstType_1::SimdFloatAlu            0      0.00%     91.63% # Number of instructions issued per FU type, per thread (Count)
system.cpu.issuedInstType_1::SimdFloatCmp            0      0.00%     91.63% # Number of instructions issued per FU type, per thread (Count)
system.cpu.issuedInstType_1::SimdFloatCvt            0      0.00%     91.63% # Number of instructions issued per FU type, per thread (Count)
system.cpu.issuedInstType_1::SimdFloatDiv            0      0.00%     91.63% # Number of instructions issued per FU type, per thread (Count)
system.cpu.issuedInstType_1::SimdFloatMisc            0      0.00%     91.63% # Number of instructions issued per FU type, per thread (Count)
system.cpu.issuedInstType_1::SimdFloatMult            0      0.00%     91.63% # Number of instructions issued per FU type, per thread (Count)
system.cpu.issuedInstType_1::SimdFloatMultAcc            0      0.00%     91.63% # Number of instructions issued per FU type, per thread (Count)
system.cpu.issuedInstType_1::SimdFloatMatMultAcc            0      0.00%     91.63% # Number of instructions issued per FU type, per thread (Count)
system.cpu.issuedInstType_1::SimdFloatSqrt            0      0.00%     91.63% # Number of instructions issued per FU type, per thread (Count)
system.cpu.issuedInstType_1::SimdReduceAdd            0      0.00%     91.63% # Number of instructions issued per FU type, per thread (Count)
system.cpu.issuedInstType_1::SimdReduceAlu            0      0.00%     91.63% # Number of instructions issued per FU type, per thread (Count)
system.cpu.issuedInstType_1::SimdReduceCmp            0      0.00%     91.63% # Number of instructions issued per FU type, per thread (Count)
system.cpu.issuedInstType_1::SimdFloatReduceAdd            0      0.00%     91.63% # Number of instructions issued per FU type, per thread (Count)
system.cpu.issuedInstType_1::SimdFloatReduceCmp            0      0.00%     91.63% # Number of instructions issued per FU type, per thread (Count)
system.cpu.issuedInstType_1::SimdAes                0      0.00%     91.63% # Number of instructions issued per FU type, per thread (Count)
system.cpu.issuedInstType_1::SimdAesMix             0      0.00%     91.63% # Number of instructions issued per FU type, per thread (Count)
system.cpu.issuedInstType_1::SimdSha1Hash            0      0.00%     91.63% # Number of instructions issued per FU type, per thread (Count)
system.cpu.issuedInstType_1::SimdSha1Hash2            0      0.00%     91.63% # Number of instructions issued per FU type, per thread (Count)
system.cpu.issuedInstType_1::SimdSha256Hash            0      0.00%     91.63% # Number of instructions issued per FU type, per thread (Count)
system.cpu.issuedInstType_1::SimdSha256Hash2            0      0.00%     91.63% # Number of instructions issued per FU type, per thread (Count)
system.cpu.issuedInstType_1::SimdShaSigma2            0      0.00%     91.63% # Number of instructions issued per FU type, per thread (Count)
system.cpu.issuedInstType_1::SimdShaSigma3            0      0.00%     91.63% # Number of instructions issued per FU type, per thread (Count)
system.cpu.issuedInstType_1::SimdSha3               0      0.00%     91.63% # Number of instructions issued per FU type, per thread (Count)
system.cpu.issuedInstType_1::SimdSm4e               0      0.00%     91.63% # Number of instructions issued per FU type, per thread (Count)
system.cpu.issuedInstType_1::SimdCrc                0      0.00%     91.63% # Number of instructions issued per FU type, per thread (Count)
system.cpu.issuedInstType_1::SimdPredAlu            0      0.00%     91.63% # Number of instructions issued per FU type, per thread (Count)
system.cpu.issuedInstType_1::SimdDotProd            0      0.00%     91.63% # Number of instructions issued per FU type, per thread (Count)
system.cpu.issuedInstType_1::Matrix                 0      0.00%     91.63% # Number of instructions issued per FU type, per thread (Count)
system.cpu.issuedInstType_1::MatrixMov              0      0.00%     91.63% # Number of instructions issued per FU type, per thread (Count)
system.cpu.issuedInstType_1::MatrixOP               0      0.00%     91.63% # Number of instructions issued per FU type, per thread (Count)
system.cpu.issuedInstType_1::MemRead          1088913      2.66%     94.29% # Number of instructions issued per FU type, per thread (Count)
system.cpu.issuedInstType_1::MemWrite           17166      0.04%     94.33% # Number of instructions issued per FU type, per thread (Count)
system.cpu.issuedInstType_1::FloatMemRead      1784469      4.35%     98.68% # Number of instructions issued per FU type, per thread (Count)
system.cpu.issuedInstType_1::FloatMemWrite       540712      1.32%    100.00% # Number of instructions issued per FU type, per thread (Count)
system.cpu.issuedInstType_1::InstPrefetch            0      0.00%    100.00% # Number of instructions issued per FU type, per thread (Count)
system.cpu.issuedInstType_1::SimdUnitStrideLoad            0      0.00%    100.00% # Number of instructions issued per FU type, per thread (Count)
system.cpu.issuedInstType_1::SimdUnitStrideStore            0      0.00%    100.00% # Number of instructions issued per FU type, per thread (Count)
system.cpu.issuedInstType_1::SimdUnitStrideMaskLoad            0      0.00%    100.00% # Number of instructions issued per FU type, per thread (Count)
system.cpu.issuedInstType_1::SimdUnitStrideMaskStore            0      0.00%    100.00% # Number of instructions issued per FU type, per thread (Count)
system.cpu.issuedInstType_1::SimdStridedLoad            0      0.00%    100.00% # Number of instructions issued per FU type, per thread (Count)
system.cpu.issuedInstType_1::SimdStridedStore            0      0.00%    100.00% # Number of instructions issued per FU type, per thread (Count)
system.cpu.issuedInstType_1::SimdIndexedLoad            0      0.00%    100.00% # Number of instructions issued per FU type, per thread (Count)
system.cpu.issuedInstType_1::SimdIndexedStore            0      0.00%    100.00% # Number of instructions issued per FU type, per thread (Count)
system.cpu.issuedInstType_1::SimdWholeRegisterLoad            0      0.00%    100.00% # Number of instructions issued per FU type, per thread (Count)
system.cpu.issuedInstType_1::SimdWholeRegisterStore            0      0.00%    100.00% # Number of instructions issued per FU type, per thread (Count)
system.cpu.issuedInstType_1::SimdUnitStrideFaultOnlyFirstLoad            0      0.00%    100.00% # Number of instructions issued per FU type, per thread (Count)
system.cpu.issuedInstType_1::SimdUnitStrideSegmentedLoad            0      0.00%    100.00% # Number of instructions issued per FU type, per thread (Count)
system.cpu.issuedInstType_1::SimdUnitStrideSegmentedStore            0      0.00%    100.00% # Number of instructions issued per FU type, per thread (Count)
system.cpu.issuedInstType_1::SimdUnitStrideSegmentedFaultOnlyFirstLoad            0      0.00%    100.00% # Number of instructions issued per FU type, per thread (Count)
system.cpu.issuedInstType_1::SimdStrideSegmentedLoad            0      0.00%    100.00% # Number of instructions issued per FU type, per thread (Count)
system.cpu.issuedInstType_1::SimdStrideSegmentedStore            0      0.00%    100.00% # Number of instructions issued per FU type, per thread (Count)
system.cpu.issuedInstType_1::SimdExt                0      0.00%    100.00% # Number of instructions issued per FU type, per thread (Count)
system.cpu.issuedInstType_1::SimdFloatExt            0      0.00%    100.00% # Number of instructions issued per FU type, per thread (Count)
system.cpu.issuedInstType_1::SimdConfig             0      0.00%    100.00% # Number of instructions issued per FU type, per thread (Count)
system.cpu.issuedInstType_1::SimdBf16Add            0      0.00%    100.00% # Number of instructions issued per FU type, per thread (Count)
system.cpu.issuedInstType_1::SimdBf16Cmp            0      0.00%    100.00% # Number of instructions issued per FU type, per thread (Count)
system.cpu.issuedInstType_1::SimdBf16Cvt            0      0.00%    100.00% # Number of instructions issued per FU type, per thread (Count)
system.cpu.issuedInstType_1::SimdBf16DotProd            0      0.00%    100.00% # Number of instructions issued per FU type, per thread (Count)
system.cpu.issuedInstType_1::SimdBf16MatMultAcc            0      0.00%    100.00% # Number of instructions issued per FU type, per thread (Count)
system.cpu.issuedInstType_1::SimdBf16Mult            0      0.00%    100.00% # Number of instructions issued per FU type, per thread (Count)
system.cpu.issuedInstType_1::SimdBf16MultAcc            0      0.00%    100.00% # Number of instructions issued per FU type, per thread (Count)
system.cpu.issuedInstType_1::Bf16Cvt                0      0.00%    100.00% # Number of instructions issued per FU type, per thread (Count)
system.cpu.issuedInstType_1::System                 0      0.00%    100.00% # Number of instructions issued per FU type, per thread (Count)
system.cpu.issuedInstType_1::total           40992231                       # Number of instructions issued per FU type, per thread (Count)
system.cpu.issuedInstType::total             81983351      0.00%      0.00% # Number of instructions issued per FU type, per thread (Count)
system.cpu.issueRate                         2.975795                       # Inst issue rate ((Count/Cycle))
system.cpu.fuBusy::0                          1556891                       # FU busy when requested (Count)
system.cpu.fuBusy::1                          1564342                       # FU busy when requested (Count)
system.cpu.fuBusy::total                      3121233                       # FU busy when requested (Count)
system.cpu.fuBusyRate::0                     0.018990                       # FU busy rate (busy events/executed inst) ((Count/Count))
system.cpu.fuBusyRate::1                     0.019081                       # FU busy rate (busy events/executed inst) ((Count/Count))
system.cpu.fuBusyRate::total                 0.038072                       # FU busy rate (busy events/executed inst) ((Count/Count))
system.cpu.intInstQueueReads                136726602                       # Number of integer instruction queue reads (Count)
system.cpu.intInstQueueWrites                59452859                       # Number of integer instruction queue writes (Count)
system.cpu.intInstQueueWakeupAccesses        52313240                       # Number of integer instruction queue wakeup accesses (Count)
system.cpu.fpInstQueueReads                  58156102                       # Number of floating instruction queue reads (Count)
system.cpu.fpInstQueueWrites                 44889878                       # Number of floating instruction queue writes (Count)
system.cpu.fpInstQueueWakeupAccesses         25654434                       # Number of floating instruction queue wakeup accesses (Count)
system.cpu.vecInstQueueReads                        0                       # Number of vector instruction queue reads (Count)
system.cpu.vecInstQueueWrites                       0                       # Number of vector instruction queue writes (Count)
system.cpu.vecInstQueueWakeupAccesses               0                       # Number of vector instruction queue wakeup accesses (Count)
system.cpu.intAluAccesses                    54462197                       # Number of integer alu accesses (Count)
system.cpu.fpAluAccesses                     29782812                       # Number of floating point alu accesses (Count)
system.cpu.vecAluAccesses                           0                       # Number of vector alu accesses (Count)
system.cpu.numRecvResp                        6618342                       # Number of received responses (Count)
system.cpu.numRecvRespBytes                  44403140                       # Number of received response bytes (Byte)
system.cpu.recvRespAvgBW                         1.61                       # Average bandwidth of received responses ((Byte/Cycle))
system.cpu.recvRespAvgSize                       6.71                       # Average packet size per received response ((Byte/Count))
system.cpu.recvRespAvgRate                       0.24                       # Average rate of received responses per cycle ((Count/Cycle))
system.cpu.recvRespAvgRetryRate                  0.00                       # Average retry rate per received response ((Count/Count))
system.cpu.numSendRetryResp                         0                       # Number of retry responses sent (Count)
system.cpu.numSquashedInsts                   2722356                       # Number of squashed instructions skipped in execute (Count)
system.cpu.numSwp::0                                0                       # Number of swp insts executed (Count)
system.cpu.numSwp::1                                0                       # Number of swp insts executed (Count)
system.cpu.numSwp::total                            0                       # Number of swp insts executed (Count)
system.cpu.timesIdled                             877                       # Number of times that the entire CPU went into an idle state and unscheduled itself (Count)
system.cpu.idleCycles                           21060                       # Total number of cycles that the CPU has spent unscheduled due to idling (Cycle)
system.cpu.MemDepUnit__0.insertedLoads        2878030                       # Number of loads inserted to the mem dependence unit. (Count)
system.cpu.MemDepUnit__0.insertedStores        559473                       # Number of stores inserted to the mem dependence unit. (Count)
system.cpu.MemDepUnit__0.conflictingLoads         1291                       # Number of conflicting loads. (Count)
system.cpu.MemDepUnit__0.conflictingStores         1225                       # Number of conflicting stores. (Count)
system.cpu.MemDepUnit__1.insertedLoads        2878632                       # Number of loads inserted to the mem dependence unit. (Count)
system.cpu.MemDepUnit__1.insertedStores        559310                       # Number of stores inserted to the mem dependence unit. (Count)
system.cpu.MemDepUnit__1.conflictingLoads         1309                       # Number of conflicting loads. (Count)
system.cpu.MemDepUnit__1.conflictingStores         1237                       # Number of conflicting stores. (Count)
system.cpu.MemDepUnit__2.insertedLoads              0                       # Number of loads inserted to the mem dependence unit. (Count)
system.cpu.MemDepUnit__2.insertedStores             0                       # Number of stores inserted to the mem dependence unit. (Count)
system.cpu.MemDepUnit__2.conflictingLoads            0                       # Number of conflicting loads. (Count)
system.cpu.MemDepUnit__2.conflictingStores            0                       # Number of conflicting stores. (Count)
system.cpu.MemDepUnit__3.insertedLoads              0                       # Number of loads inserted to the mem dependence unit. (Count)
system.cpu.MemDepUnit__3.insertedStores             0                       # Number of stores inserted to the mem dependence unit. (Count)
system.cpu.MemDepUnit__3.conflictingLoads            0                       # Number of conflicting loads. (Count)
system.cpu.MemDepUnit__3.conflictingStores            0                       # Number of conflicting stores. (Count)
system.cpu.bac.fetchTargets                         0                       # Number of fetch targets created  (Count)
system.cpu.bac.branches                       6623779                       # Number of branches that BAC encountered (Count)
system.cpu.bac.predTakenBranches              2742342                       # Number of branches that BAC predicted taken. (Count)
system.cpu.bac.branchesNotLastuOp                   0                       # Number of branches that fetch encountered which are not the last uOp within a macrooperation. Jump to itself. (Count)
system.cpu.bac.branchMisspredict              1137109                       # Number of mispredicted branches (Count)
system.cpu.bac.noBranchMisspredict               3013                       # Number of non-branch instructions mispredicted (Count)
system.cpu.bac.squashBranchDecode                4486                       # Number of branches squashed from decode (Count)
system.cpu.bac.squashBranchCommit             1132623                       # Number of branches squashed from commit (Count)
system.cpu.bac.preDecUpdate::NoBranch               0                       # Number of branches extracted from the predecoder (Count)
system.cpu.bac.preDecUpdate::Return                 0                       # Number of branches extracted from the predecoder (Count)
system.cpu.bac.preDecUpdate::CallDirect             0                       # Number of branches extracted from the predecoder (Count)
system.cpu.bac.preDecUpdate::CallIndirect            0                       # Number of branches extracted from the predecoder (Count)
system.cpu.bac.preDecUpdate::DirectCond             0                       # Number of branches extracted from the predecoder (Count)
system.cpu.bac.preDecUpdate::DirectUncond            0                       # Number of branches extracted from the predecoder (Count)
system.cpu.bac.preDecUpdate::IndirectCond            0                       # Number of branches extracted from the predecoder (Count)
system.cpu.bac.preDecUpdate::IndirectUncond            0                       # Number of branches extracted from the predecoder (Count)
system.cpu.bac.preDecUpdate::total                  0                       # Number of branches extracted from the predecoder (Count)
system.cpu.bac.noHistByType::NoBranch               0                       # Number and type of branches that were undetected by the BPU. (Count)
system.cpu.bac.noHistByType::Return                 0                       # Number and type of branches that were undetected by the BPU. (Count)
system.cpu.bac.noHistByType::CallDirect             0                       # Number and type of branches that were undetected by the BPU. (Count)
system.cpu.bac.noHistByType::CallIndirect            0                       # Number and type of branches that were undetected by the BPU. (Count)
system.cpu.bac.noHistByType::DirectCond             0                       # Number and type of branches that were undetected by the BPU. (Count)
system.cpu.bac.noHistByType::DirectUncond            0                       # Number and type of branches that were undetected by the BPU. (Count)
system.cpu.bac.noHistByType::IndirectCond            0                       # Number and type of branches that were undetected by the BPU. (Count)
system.cpu.bac.noHistByType::IndirectUncond            0                       # Number and type of branches that were undetected by the BPU. (Count)
system.cpu.bac.noHistByType::total                  0                       # Number and type of branches that were undetected by the BPU. (Count)
system.cpu.bac.typeMissmatch                        0                       # Number branches where the branch type miss match (Count)
system.cpu.bac.multiBranchInst                      0                       # Number branches because its not the last branch. (Count)
system.cpu.bac.ftSizeDist::samples                  0                       # Number of bytes per fetch target (Count)
system.cpu.bac.ftSizeDist::mean                   nan                       # Number of bytes per fetch target (Count)
system.cpu.bac.ftSizeDist::stdev                  nan                       # Number of bytes per fetch target (Count)
system.cpu.bac.ftSizeDist::underflows               0                       # Number of bytes per fetch target (Count)
system.cpu.bac.ftSizeDist::0-3                      0                       # Number of bytes per fetch target (Count)
system.cpu.bac.ftSizeDist::4-7                      0                       # Number of bytes per fetch target (Count)
system.cpu.bac.ftSizeDist::8-11                     0                       # Number of bytes per fetch target (Count)
system.cpu.bac.ftSizeDist::12-15                    0                       # Number of bytes per fetch target (Count)
system.cpu.bac.ftSizeDist::16-19                    0                       # Number of bytes per fetch target (Count)
system.cpu.bac.ftSizeDist::20-23                    0                       # Number of bytes per fetch target (Count)
system.cpu.bac.ftSizeDist::24-27                    0                       # Number of bytes per fetch target (Count)
system.cpu.bac.ftSizeDist::28-31                    0                       # Number of bytes per fetch target (Count)
system.cpu.bac.ftSizeDist::32                       0                       # Number of bytes per fetch target (Count)
system.cpu.bac.ftSizeDist::overflows                0                       # Number of bytes per fetch target (Count)
system.cpu.bac.ftSizeDist::min_value                0                       # Number of bytes per fetch target (Count)
system.cpu.bac.ftSizeDist::max_value                0                       # Number of bytes per fetch target (Count)
system.cpu.bac.ftSizeDist::total                    0                       # Number of bytes per fetch target (Count)
system.cpu.bac.ftNumber::samples                    0                       # Number of fetch target inserted to the FTQ per cycle (Count)
system.cpu.bac.ftNumber::mean                     nan                       # Number of fetch target inserted to the FTQ per cycle (Count)
system.cpu.bac.ftNumber::stdev                    nan                       # Number of fetch target inserted to the FTQ per cycle (Count)
system.cpu.bac.ftNumber::underflows                 0                       # Number of fetch target inserted to the FTQ per cycle (Count)
system.cpu.bac.ftNumber::0                          0                       # Number of fetch target inserted to the FTQ per cycle (Count)
system.cpu.bac.ftNumber::1                          0                       # Number of fetch target inserted to the FTQ per cycle (Count)
system.cpu.bac.ftNumber::2                          0                       # Number of fetch target inserted to the FTQ per cycle (Count)
system.cpu.bac.ftNumber::3                          0                       # Number of fetch target inserted to the FTQ per cycle (Count)
system.cpu.bac.ftNumber::4                          0                       # Number of fetch target inserted to the FTQ per cycle (Count)
system.cpu.bac.ftNumber::overflows                  0                       # Number of fetch target inserted to the FTQ per cycle (Count)
system.cpu.bac.ftNumber::min_value                  0                       # Number of fetch target inserted to the FTQ per cycle (Count)
system.cpu.bac.ftNumber::max_value                  0                       # Number of fetch target inserted to the FTQ per cycle (Count)
system.cpu.bac.ftNumber::total                      0                       # Number of fetch target inserted to the FTQ per cycle (Count)
system.cpu.branchPred.lookups_0::NoBranch       460296     13.84%     13.84% # Number of BP lookups (Count)
system.cpu.branchPred.lookups_0::Return         24907      0.75%     14.58% # Number of BP lookups (Count)
system.cpu.branchPred.lookups_0::CallDirect        84729      2.55%     17.13% # Number of BP lookups (Count)
system.cpu.branchPred.lookups_0::CallIndirect          328      0.01%     17.14% # Number of BP lookups (Count)
system.cpu.branchPred.lookups_0::DirectCond      2735755     82.23%     99.38% # Number of BP lookups (Count)
system.cpu.branchPred.lookups_0::DirectUncond         2250      0.07%     99.44% # Number of BP lookups (Count)
system.cpu.branchPred.lookups_0::IndirectCond            0      0.00%     99.44% # Number of BP lookups (Count)
system.cpu.branchPred.lookups_0::IndirectUncond        18542      0.56%    100.00% # Number of BP lookups (Count)
system.cpu.branchPred.lookups_0::total        3326807                       # Number of BP lookups (Count)
system.cpu.branchPred.lookups_1::NoBranch       435997     13.22%     13.22% # Number of BP lookups (Count)
system.cpu.branchPred.lookups_1::Return         10224      0.31%     13.53% # Number of BP lookups (Count)
system.cpu.branchPred.lookups_1::CallDirect        73761      2.24%     15.77% # Number of BP lookups (Count)
system.cpu.branchPred.lookups_1::CallIndirect          275      0.01%     15.78% # Number of BP lookups (Count)
system.cpu.branchPred.lookups_1::DirectCond      2728242     82.75%     98.53% # Number of BP lookups (Count)
system.cpu.branchPred.lookups_1::DirectUncond         2213      0.07%     98.60% # Number of BP lookups (Count)
system.cpu.branchPred.lookups_1::IndirectCond            0      0.00%     98.60% # Number of BP lookups (Count)
system.cpu.branchPred.lookups_1::IndirectUncond        46260      1.40%    100.00% # Number of BP lookups (Count)
system.cpu.branchPred.lookups_1::total        3296972                       # Number of BP lookups (Count)
system.cpu.branchPred.lookups::total          6623779      0.00%      0.00% # Number of BP lookups (Count)
system.cpu.branchPred.squashes_0::NoBranch       460254     31.30%     31.30% # Number of branches that got squashed (completely removed) as an earlier branch was mispredicted. (Count)
system.cpu.branchPred.squashes_0::Return        23959      1.63%     32.93% # Number of branches that got squashed (completely removed) as an earlier branch was mispredicted. (Count)
system.cpu.branchPred.squashes_0::CallDirect        83936      5.71%     38.64% # Number of branches that got squashed (completely removed) as an earlier branch was mispredicted. (Count)
system.cpu.branchPred.squashes_0::CallIndirect          168      0.01%     38.65% # Number of branches that got squashed (completely removed) as an earlier branch was mispredicted. (Count)
system.cpu.branchPred.squashes_0::DirectCond       882271     60.00%     98.65% # Number of branches that got squashed (completely removed) as an earlier branch was mispredicted. (Count)
system.cpu.branchPred.squashes_0::DirectUncond         1512      0.10%     98.76% # Number of branches that got squashed (completely removed) as an earlier branch was mispredicted. (Count)
system.cpu.branchPred.squashes_0::IndirectCond            0      0.00%     98.76% # Number of branches that got squashed (completely removed) as an earlier branch was mispredicted. (Count)
system.cpu.branchPred.squashes_0::IndirectUncond        18302      1.24%    100.00% # Number of branches that got squashed (completely removed) as an earlier branch was mispredicted. (Count)
system.cpu.branchPred.squashes_0::total       1470402                       # Number of branches that got squashed (completely removed) as an earlier branch was mispredicted. (Count)
system.cpu.branchPred.squashes_1::NoBranch       435955     30.26%     30.26% # Number of branches that got squashed (completely removed) as an earlier branch was mispredicted. (Count)
system.cpu.branchPred.squashes_1::Return         9276      0.64%     30.91% # Number of branches that got squashed (completely removed) as an earlier branch was mispredicted. (Count)
system.cpu.branchPred.squashes_1::CallDirect        72968      5.07%     35.97% # Number of branches that got squashed (completely removed) as an earlier branch was mispredicted. (Count)
system.cpu.branchPred.squashes_1::CallIndirect          115      0.01%     35.98% # Number of branches that got squashed (completely removed) as an earlier branch was mispredicted. (Count)
system.cpu.branchPred.squashes_1::DirectCond       874757     60.72%     96.70% # Number of branches that got squashed (completely removed) as an earlier branch was mispredicted. (Count)
system.cpu.branchPred.squashes_1::DirectUncond         1475      0.10%     96.81% # Number of branches that got squashed (completely removed) as an earlier branch was mispredicted. (Count)
system.cpu.branchPred.squashes_1::IndirectCond            0      0.00%     96.81% # Number of branches that got squashed (completely removed) as an earlier branch was mispredicted. (Count)
system.cpu.branchPred.squashes_1::IndirectUncond        46020      3.19%    100.00% # Number of branches that got squashed (completely removed) as an earlier branch was mispredicted. (Count)
system.cpu.branchPred.squashes_1::total       1440566                       # Number of branches that got squashed (completely removed) as an earlier branch was mispredicted. (Count)
system.cpu.branchPred.squashes::total         2910968      0.00%      0.00% # Number of branches that got squashed (completely removed) as an earlier branch was mispredicted. (Count)
system.cpu.branchPred.corrected_0::NoBranch          117      0.02%      0.02% # Number of branches that got corrected but not yet commited. Branches get corrected by decode or after execute. Also a branch misprediction can be detected out-of-order. Therefore, a corrected branch might not end up beeing committed in case an even earlier branch was mispredicted (Count)
system.cpu.branchPred.corrected_0::Return            2      0.00%      0.02% # Number of branches that got corrected but not yet commited. Branches get corrected by decode or after execute. Also a branch misprediction can be detected out-of-order. Therefore, a corrected branch might not end up beeing committed in case an even earlier branch was mispredicted (Count)
system.cpu.branchPred.corrected_0::CallDirect         1082      0.19%      0.21% # Number of branches that got corrected but not yet commited. Branches get corrected by decode or after execute. Also a branch misprediction can be detected out-of-order. Therefore, a corrected branch might not end up beeing committed in case an even earlier branch was mispredicted (Count)
system.cpu.branchPred.corrected_0::CallIndirect           67      0.01%      0.22% # Number of branches that got corrected but not yet commited. Branches get corrected by decode or after execute. Also a branch misprediction can be detected out-of-order. Therefore, a corrected branch might not end up beeing committed in case an even earlier branch was mispredicted (Count)
system.cpu.branchPred.corrected_0::DirectCond       566088     99.55%     99.77% # Number of branches that got corrected but not yet commited. Branches get corrected by decode or after execute. Also a branch misprediction can be detected out-of-order. Therefore, a corrected branch might not end up beeing committed in case an even earlier branch was mispredicted (Count)
system.cpu.branchPred.corrected_0::DirectUncond         1142      0.20%     99.97% # Number of branches that got corrected but not yet commited. Branches get corrected by decode or after execute. Also a branch misprediction can be detected out-of-order. Therefore, a corrected branch might not end up beeing committed in case an even earlier branch was mispredicted (Count)
system.cpu.branchPred.corrected_0::IndirectCond            0      0.00%     99.97% # Number of branches that got corrected but not yet commited. Branches get corrected by decode or after execute. Also a branch misprediction can be detected out-of-order. Therefore, a corrected branch might not end up beeing committed in case an even earlier branch was mispredicted (Count)
system.cpu.branchPred.corrected_0::IndirectUncond          162      0.03%    100.00% # Number of branches that got corrected but not yet commited. Branches get corrected by decode or after execute. Also a branch misprediction can be detected out-of-order. Therefore, a corrected branch might not end up beeing committed in case an even earlier branch was mispredicted (Count)
system.cpu.branchPred.corrected_0::total       568660                       # Number of branches that got corrected but not yet commited. Branches get corrected by decode or after execute. Also a branch misprediction can be detected out-of-order. Therefore, a corrected branch might not end up beeing committed in case an even earlier branch was mispredicted (Count)
system.cpu.branchPred.corrected_1::NoBranch          123      0.02%      0.02% # Number of branches that got corrected but not yet commited. Branches get corrected by decode or after execute. Also a branch misprediction can be detected out-of-order. Therefore, a corrected branch might not end up beeing committed in case an even earlier branch was mispredicted (Count)
system.cpu.branchPred.corrected_1::Return            0      0.00%      0.02% # Number of branches that got corrected but not yet commited. Branches get corrected by decode or after execute. Also a branch misprediction can be detected out-of-order. Therefore, a corrected branch might not end up beeing committed in case an even earlier branch was mispredicted (Count)
system.cpu.branchPred.corrected_1::CallDirect         1081      0.19%      0.21% # Number of branches that got corrected but not yet commited. Branches get corrected by decode or after execute. Also a branch misprediction can be detected out-of-order. Therefore, a corrected branch might not end up beeing committed in case an even earlier branch was mispredicted (Count)
system.cpu.branchPred.corrected_1::CallIndirect           40      0.01%      0.22% # Number of branches that got corrected but not yet commited. Branches get corrected by decode or after execute. Also a branch misprediction can be detected out-of-order. Therefore, a corrected branch might not end up beeing committed in case an even earlier branch was mispredicted (Count)
system.cpu.branchPred.corrected_1::DirectCond       566003     99.57%     99.79% # Number of branches that got corrected but not yet commited. Branches get corrected by decode or after execute. Also a branch misprediction can be detected out-of-order. Therefore, a corrected branch might not end up beeing committed in case an even earlier branch was mispredicted (Count)
system.cpu.branchPred.corrected_1::DirectUncond         1142      0.20%     99.99% # Number of branches that got corrected but not yet commited. Branches get corrected by decode or after execute. Also a branch misprediction can be detected out-of-order. Therefore, a corrected branch might not end up beeing committed in case an even earlier branch was mispredicted (Count)
system.cpu.branchPred.corrected_1::IndirectCond            0      0.00%     99.99% # Number of branches that got corrected but not yet commited. Branches get corrected by decode or after execute. Also a branch misprediction can be detected out-of-order. Therefore, a corrected branch might not end up beeing committed in case an even earlier branch was mispredicted (Count)
system.cpu.branchPred.corrected_1::IndirectUncond           60      0.01%    100.00% # Number of branches that got corrected but not yet commited. Branches get corrected by decode or after execute. Also a branch misprediction can be detected out-of-order. Therefore, a corrected branch might not end up beeing committed in case an even earlier branch was mispredicted (Count)
system.cpu.branchPred.corrected_1::total       568449                       # Number of branches that got corrected but not yet commited. Branches get corrected by decode or after execute. Also a branch misprediction can be detected out-of-order. Therefore, a corrected branch might not end up beeing committed in case an even earlier branch was mispredicted (Count)
system.cpu.branchPred.corrected::total        1137109      0.00%      0.00% # Number of branches that got corrected but not yet commited. Branches get corrected by decode or after execute. Also a branch misprediction can be detected out-of-order. Therefore, a corrected branch might not end up beeing committed in case an even earlier branch was mispredicted (Count)
system.cpu.branchPred.earlyResteers_0::NoBranch            0      0.00%      0.00% # Number of branches that got redirected after decode. (Count)
system.cpu.branchPred.earlyResteers_0::Return            0      0.00%      0.00% # Number of branches that got redirected after decode. (Count)
system.cpu.branchPred.earlyResteers_0::CallDirect         1082     48.26%     48.26% # Number of branches that got redirected after decode. (Count)
system.cpu.branchPred.earlyResteers_0::CallIndirect            0      0.00%     48.26% # Number of branches that got redirected after decode. (Count)
system.cpu.branchPred.earlyResteers_0::DirectCond           18      0.80%     49.06% # Number of branches that got redirected after decode. (Count)
system.cpu.branchPred.earlyResteers_0::DirectUncond         1142     50.94%    100.00% # Number of branches that got redirected after decode. (Count)
system.cpu.branchPred.earlyResteers_0::IndirectCond            0      0.00%    100.00% # Number of branches that got redirected after decode. (Count)
system.cpu.branchPred.earlyResteers_0::IndirectUncond            0      0.00%    100.00% # Number of branches that got redirected after decode. (Count)
system.cpu.branchPred.earlyResteers_0::total         2242                       # Number of branches that got redirected after decode. (Count)
system.cpu.branchPred.earlyResteers_1::NoBranch            0      0.00%      0.00% # Number of branches that got redirected after decode. (Count)
system.cpu.branchPred.earlyResteers_1::Return            0      0.00%      0.00% # Number of branches that got redirected after decode. (Count)
system.cpu.branchPred.earlyResteers_1::CallDirect         1081     48.17%     48.17% # Number of branches that got redirected after decode. (Count)
system.cpu.branchPred.earlyResteers_1::CallIndirect            0      0.00%     48.17% # Number of branches that got redirected after decode. (Count)
system.cpu.branchPred.earlyResteers_1::DirectCond           21      0.94%     49.11% # Number of branches that got redirected after decode. (Count)
system.cpu.branchPred.earlyResteers_1::DirectUncond         1142     50.89%    100.00% # Number of branches that got redirected after decode. (Count)
system.cpu.branchPred.earlyResteers_1::IndirectCond            0      0.00%    100.00% # Number of branches that got redirected after decode. (Count)
system.cpu.branchPred.earlyResteers_1::IndirectUncond            0      0.00%    100.00% # Number of branches that got redirected after decode. (Count)
system.cpu.branchPred.earlyResteers_1::total         2244                       # Number of branches that got redirected after decode. (Count)
system.cpu.branchPred.earlyResteers::total         4486      0.00%      0.00% # Number of branches that got redirected after decode. (Count)
system.cpu.branchPred.committed_0::NoBranch           42      0.00%      0.00% # Number of branches finally committed  (Count)
system.cpu.branchPred.committed_0::Return          948      0.05%      0.05% # Number of branches finally committed  (Count)
system.cpu.branchPred.committed_0::CallDirect          793      0.04%      0.10% # Number of branches finally committed  (Count)
system.cpu.branchPred.committed_0::CallIndirect          160      0.01%      0.10% # Number of branches finally committed  (Count)
system.cpu.branchPred.committed_0::DirectCond      1853484     99.84%     99.95% # Number of branches finally committed  (Count)
system.cpu.branchPred.committed_0::DirectUncond          738      0.04%     99.99% # Number of branches finally committed  (Count)
system.cpu.branchPred.committed_0::IndirectCond            0      0.00%     99.99% # Number of branches finally committed  (Count)
system.cpu.branchPred.committed_0::IndirectUncond          240      0.01%    100.00% # Number of branches finally committed  (Count)
system.cpu.branchPred.committed_0::total      1856405                       # Number of branches finally committed  (Count)
system.cpu.branchPred.committed_1::NoBranch           42      0.00%      0.00% # Number of branches finally committed  (Count)
system.cpu.branchPred.committed_1::Return          948      0.05%      0.05% # Number of branches finally committed  (Count)
system.cpu.branchPred.committed_1::CallDirect          793      0.04%      0.10% # Number of branches finally committed  (Count)
system.cpu.branchPred.committed_1::CallIndirect          160      0.01%      0.10% # Number of branches finally committed  (Count)
system.cpu.branchPred.committed_1::DirectCond      1853484     99.84%     99.95% # Number of branches finally committed  (Count)
system.cpu.branchPred.committed_1::DirectUncond          738      0.04%     99.99% # Number of branches finally committed  (Count)
system.cpu.branchPred.committed_1::IndirectCond            0      0.00%     99.99% # Number of branches finally committed  (Count)
system.cpu.branchPred.committed_1::IndirectUncond          240      0.01%    100.00% # Number of branches finally committed  (Count)
system.cpu.branchPred.committed_1::total      1856405                       # Number of branches finally committed  (Count)
system.cpu.branchPred.committed::total        3712810      0.00%      0.00% # Number of branches finally committed  (Count)
system.cpu.branchPred.mispredicted_0::NoBranch           42      0.01%      0.01% # Number of committed branches that were mispredicted. (Count)
system.cpu.branchPred.mispredicted_0::Return            0      0.00%      0.01% # Number of committed branches that were mispredicted. (Count)
system.cpu.branchPred.mispredicted_0::CallDirect          521      0.09%      0.10% # Number of committed branches that were mispredicted. (Count)
system.cpu.branchPred.mispredicted_0::CallIndirect           64      0.01%      0.11% # Number of committed branches that were mispredicted. (Count)
system.cpu.branchPred.mispredicted_0::DirectCond       564800     99.79%     99.90% # Number of committed branches that were mispredicted. (Count)
system.cpu.branchPred.mispredicted_0::DirectUncond          435      0.08%     99.98% # Number of committed branches that were mispredicted. (Count)
system.cpu.branchPred.mispredicted_0::IndirectCond            0      0.00%     99.98% # Number of committed branches that were mispredicted. (Count)
system.cpu.branchPred.mispredicted_0::IndirectUncond          123      0.02%    100.00% # Number of committed branches that were mispredicted. (Count)
system.cpu.branchPred.mispredicted_0::total       565985                       # Number of committed branches that were mispredicted. (Count)
system.cpu.branchPred.mispredicted_1::NoBranch           42      0.01%      0.01% # Number of committed branches that were mispredicted. (Count)
system.cpu.branchPred.mispredicted_1::Return            0      0.00%      0.01% # Number of committed branches that were mispredicted. (Count)
system.cpu.branchPred.mispredicted_1::CallDirect          528      0.09%      0.10% # Number of committed branches that were mispredicted. (Count)
system.cpu.branchPred.mispredicted_1::CallIndirect           37      0.01%      0.11% # Number of committed branches that were mispredicted. (Count)
system.cpu.branchPred.mispredicted_1::DirectCond       564717     99.81%     99.91% # Number of committed branches that were mispredicted. (Count)
system.cpu.branchPred.mispredicted_1::DirectUncond          446      0.08%     99.99% # Number of committed branches that were mispredicted. (Count)
system.cpu.branchPred.mispredicted_1::IndirectCond            0      0.00%     99.99% # Number of committed branches that were mispredicted. (Count)
system.cpu.branchPred.mispredicted_1::IndirectUncond           43      0.01%    100.00% # Number of committed branches that were mispredicted. (Count)
system.cpu.branchPred.mispredicted_1::total       565813                       # Number of committed branches that were mispredicted. (Count)
system.cpu.branchPred.mispredicted::total      1131798      0.00%      0.00% # Number of committed branches that were mispredicted. (Count)
system.cpu.branchPred.mispredictDueToPredictor_0::NoBranch           42      4.72%      4.72% # Number of committed branches that were mispredicted by the predictor. (Count)
system.cpu.branchPred.mispredictDueToPredictor_0::Return            0      0.00%      4.72% # Number of committed branches that were mispredicted by the predictor. (Count)
system.cpu.branchPred.mispredictDueToPredictor_0::CallDirect            0      0.00%      4.72% # Number of committed branches that were mispredicted by the predictor. (Count)
system.cpu.branchPred.mispredictDueToPredictor_0::CallIndirect            0      0.00%      4.72% # Number of committed branches that were mispredicted by the predictor. (Count)
system.cpu.branchPred.mispredictDueToPredictor_0::DirectCond          848     95.28%    100.00% # Number of committed branches that were mispredicted by the predictor. (Count)
system.cpu.branchPred.mispredictDueToPredictor_0::DirectUncond            0      0.00%    100.00% # Number of committed branches that were mispredicted by the predictor. (Count)
system.cpu.branchPred.mispredictDueToPredictor_0::IndirectCond            0      0.00%    100.00% # Number of committed branches that were mispredicted by the predictor. (Count)
system.cpu.branchPred.mispredictDueToPredictor_0::IndirectUncond            0      0.00%    100.00% # Number of committed branches that were mispredicted by the predictor. (Count)
system.cpu.branchPred.mispredictDueToPredictor_0::total          890                       # Number of committed branches that were mispredicted by the predictor. (Count)
system.cpu.branchPred.mispredictDueToPredictor_1::NoBranch           42      5.74%      5.74% # Number of committed branches that were mispredicted by the predictor. (Count)
system.cpu.branchPred.mispredictDueToPredictor_1::Return            0      0.00%      5.74% # Number of committed branches that were mispredicted by the predictor. (Count)
system.cpu.branchPred.mispredictDueToPredictor_1::CallDirect            0      0.00%      5.74% # Number of committed branches that were mispredicted by the predictor. (Count)
system.cpu.branchPred.mispredictDueToPredictor_1::CallIndirect            0      0.00%      5.74% # Number of committed branches that were mispredicted by the predictor. (Count)
system.cpu.branchPred.mispredictDueToPredictor_1::DirectCond          690     94.26%    100.00% # Number of committed branches that were mispredicted by the predictor. (Count)
system.cpu.branchPred.mispredictDueToPredictor_1::DirectUncond            0      0.00%    100.00% # Number of committed branches that were mispredicted by the predictor. (Count)
system.cpu.branchPred.mispredictDueToPredictor_1::IndirectCond            0      0.00%    100.00% # Number of committed branches that were mispredicted by the predictor. (Count)
[...]
system.mem_ctrl.dram.bwRead::total         1235775479                       # Total read bandwidth from this memory ((Byte/Second))
system.mem_ctrl.dram.bwInstRead::cpu.inst      8163175                       # Instruction read bandwidth from this memory ((Byte/Second))
system.mem_ctrl.dram.bwInstRead::total        8163175                       # Instruction read bandwidth from this memory ((Byte/Second))
system.mem_ctrl.dram.bwWrite::writebacks    307635996                       # Write bandwidth from this memory ((Byte/Second))
system.mem_ctrl.dram.bwWrite::total         307635996                       # Write bandwidth from this memory ((Byte/Second))
system.mem_ctrl.dram.bwTotal::writebacks    307635996                       # Total bandwidth to/from this memory ((Byte/Second))
system.mem_ctrl.dram.bwTotal::cpu.inst        8163175                       # Total bandwidth to/from this memory ((Byte/Second))
system.mem_ctrl.dram.bwTotal::cpu.data     1227612304                       # Total bandwidth to/from this memory ((Byte/Second))
system.mem_ctrl.dram.bwTotal::total        1543411475                       # Total bandwidth to/from this memory ((Byte/Second))
system.mem_ctrl.dram.readBursts                531748                       # Number of DRAM read bursts (Count)
system.mem_ctrl.dram.writeBursts               132367                       # Number of DRAM write bursts (Count)
system.mem_ctrl.dram.perBankRdBursts::0         33273                       # Per bank write bursts (Count)
system.mem_ctrl.dram.perBankRdBursts::1         33492                       # Per bank write bursts (Count)
system.mem_ctrl.dram.perBankRdBursts::2         33281                       # Per bank write bursts (Count)
system.mem_ctrl.dram.perBankRdBursts::3         33268                       # Per bank write bursts (Count)
system.mem_ctrl.dram.perBankRdBursts::4         33139                       # Per bank write bursts (Count)
system.mem_ctrl.dram.perBankRdBursts::5         33086                       # Per bank write bursts (Count)
system.mem_ctrl.dram.perBankRdBursts::6         33187                       # Per bank write bursts (Count)
system.mem_ctrl.dram.perBankRdBursts::7         33554                       # Per bank write bursts (Count)
system.mem_ctrl.dram.perBankRdBursts::8         32957                       # Per bank write bursts (Count)
system.mem_ctrl.dram.perBankRdBursts::9         33128                       # Per bank write bursts (Count)
system.mem_ctrl.dram.perBankRdBursts::10        33129                       # Per bank write bursts (Count)
system.mem_ctrl.dram.perBankRdBursts::11        32876                       # Per bank write bursts (Count)
system.mem_ctrl.dram.perBankRdBursts::12        33233                       # Per bank write bursts (Count)
system.mem_ctrl.dram.perBankRdBursts::13        33268                       # Per bank write bursts (Count)
system.mem_ctrl.dram.perBankRdBursts::14        33377                       # Per bank write bursts (Count)
system.mem_ctrl.dram.perBankRdBursts::15        33500                       # Per bank write bursts (Count)
system.mem_ctrl.dram.perBankWrBursts::0          8269                       # Per bank write bursts (Count)
system.mem_ctrl.dram.perBankWrBursts::1          8299                       # Per bank write bursts (Count)
system.mem_ctrl.dram.perBankWrBursts::2          8232                       # Per bank write bursts (Count)
system.mem_ctrl.dram.perBankWrBursts::3          8239                       # Per bank write bursts (Count)
system.mem_ctrl.dram.perBankWrBursts::4          8251                       # Per bank write bursts (Count)
system.mem_ctrl.dram.perBankWrBursts::5          8206                       # Per bank write bursts (Count)
system.mem_ctrl.dram.perBankWrBursts::6          8205                       # Per bank write bursts (Count)
system.mem_ctrl.dram.perBankWrBursts::7          8382                       # Per bank write bursts (Count)
system.mem_ctrl.dram.perBankWrBursts::8          8247                       # Per bank write bursts (Count)
system.mem_ctrl.dram.perBankWrBursts::9          8284                       # Per bank write bursts (Count)
system.mem_ctrl.dram.perBankWrBursts::10         8193                       # Per bank write bursts (Count)
system.mem_ctrl.dram.perBankWrBursts::11         8192                       # Per bank write bursts (Count)
system.mem_ctrl.dram.perBankWrBursts::12         8333                       # Per bank write bursts (Count)
system.mem_ctrl.dram.perBankWrBursts::13         8324                       # Per bank write bursts (Count)
system.mem_ctrl.dram.perBankWrBursts::14         8294                       # Per bank write bursts (Count)
system.mem_ctrl.dram.perBankWrBursts::15         8417                       # Per bank write bursts (Count)
system.mem_ctrl.dram.totQLat               3768325000                       # Total ticks spent queuing (Tick)
system.mem_ctrl.dram.totBusLat             2658740000                       # Total ticks spent in databus transfers (Tick)
system.mem_ctrl.dram.totMemAccLat         13738600000                       # Total ticks spent from burst creation until serviced by the DRAM (Tick)
system.mem_ctrl.dram.avgQLat                  7086.67                       # Average queueing delay per DRAM burst ((Tick/Count))
system.mem_ctrl.dram.avgBusLat                5000.00                       # Average bus latency per DRAM burst ((Tick/Count))
system.mem_ctrl.dram.avgMemAccLat            25836.67                       # Average memory access latency per DRAM burst ((Tick/Count))
system.mem_ctrl.dram.readRowHits               491376                       # Number of row buffer hits during reads (Count)
system.mem_ctrl.dram.writeRowHits              123033                       # Number of row buffer hits during writes (Count)
system.mem_ctrl.dram.readRowHitRate             92.41                       # Row buffer hit rate for reads (Ratio)
system.mem_ctrl.dram.writeRowHitRate            92.95                       # Row buffer hit rate for writes (Ratio)
system.mem_ctrl.dram.bytesPerActivate::samples        49700                       # Bytes accessed per row activation (Byte)
system.mem_ctrl.dram.bytesPerActivate::mean   855.180362                       # Bytes accessed per row activation (Byte)
system.mem_ctrl.dram.bytesPerActivate::gmean   721.685997                       # Bytes accessed per row activation (Byte)
system.mem_ctrl.dram.bytesPerActivate::stdev   313.320008                       # Bytes accessed per row activation (Byte)
system.mem_ctrl.dram.bytesPerActivate::0-127         2561      5.15%      5.15% # Bytes accessed per row activation (Byte)
system.mem_ctrl.dram.bytesPerActivate::128-255         2535      5.10%     10.25% # Bytes accessed per row activation (Byte)
system.mem_ctrl.dram.bytesPerActivate::256-383         1663      3.35%     13.60% # Bytes accessed per row activation (Byte)
system.mem_ctrl.dram.bytesPerActivate::384-511         1392      2.80%     16.40% # Bytes accessed per row activation (Byte)
system.mem_ctrl.dram.bytesPerActivate::512-639         1161      2.34%     18.74% # Bytes accessed per row activation (Byte)
system.mem_ctrl.dram.bytesPerActivate::640-767         1358      2.73%     21.47% # Bytes accessed per row activation (Byte)
system.mem_ctrl.dram.bytesPerActivate::768-895         1793      3.61%     25.08% # Bytes accessed per row activation (Byte)
system.mem_ctrl.dram.bytesPerActivate::896-1023         1791      3.60%     28.68% # Bytes accessed per row activation (Byte)
system.mem_ctrl.dram.bytesPerActivate::1024-1151        35446     71.32%    100.00% # Bytes accessed per row activation (Byte)
system.mem_ctrl.dram.bytesPerActivate::total        49700                       # Bytes accessed per row activation (Byte)
system.mem_ctrl.dram.dramBytesRead           34031872                       # Total bytes read (Byte)
system.mem_ctrl.dram.dramBytesWritten         8471488                       # Total bytes written (Byte)
system.mem_ctrl.dram.avgRdBW              1235.273701                       # Average DRAM read bandwidth in MiBytes/s ((Byte/Second))
system.mem_ctrl.dram.avgWrBW               307.494291                       # Average DRAM write bandwidth in MiBytes/s ((Byte/Second))
system.mem_ctrl.dram.peakBW                  12800.00                       # Theoretical peak bandwidth in MiByte/s ((Byte/Second))
system.mem_ctrl.dram.busUtil                    12.05                       # Data bus utilization in percentage (Ratio)
system.mem_ctrl.dram.busUtilRead                 9.65                       # Data bus utilization in percentage for reads (Ratio)
system.mem_ctrl.dram.busUtilWrite                2.40                       # Data bus utilization in percentage for writes (Ratio)
system.mem_ctrl.dram.pageHitRate                92.52                       # Row buffer hit rate, read and write combined (Ratio)
system.mem_ctrl.dram.power_state.pwrStateResidencyTicks::UNDEFINED  27550066000                       # Cumulative time (in ticks) in various power states (Tick)
system.mem_ctrl.dram.rank0.actEnergy        178642800                       # Energy for activate commands per rank (pJ) (Joule)
system.mem_ctrl.dram.rank0.preEnergy         94943310                       # Energy for precharge commands per rank (pJ) (Joule)
system.mem_ctrl.dram.rank0.readEnergy      1901239200                       # Energy for read commands per rank (pJ) (Joule)
system.mem_ctrl.dram.rank0.writeEnergy      344953260                       # Energy for write commands per rank (pJ) (Joule)
system.mem_ctrl.dram.rank0.refreshEnergy 2174596320.000000                       # Energy for refresh commands per rank (pJ) (Joule)
system.mem_ctrl.dram.rank0.actBackEnergy   7991702670                       # Energy for active background per rank (pJ) (Joule)
system.mem_ctrl.dram.rank0.preBackEnergy   3849370560                       # Energy for precharge background per rank (pJ) (Joule)
system.mem_ctrl.dram.rank0.actPowerDownEnergy            0                       # Energy for active power-down per rank (pJ) (Joule)
system.mem_ctrl.dram.rank0.prePowerDownEnergy            0                       # Energy for precharge power-down per rank (pJ) (Joule)
system.mem_ctrl.dram.rank0.selfRefreshEnergy            0                       # Energy for self refresh per rank (pJ) (Joule)
system.mem_ctrl.dram.rank0.totalEnergy    16535448120                       # Total energy per rank (pJ) (Joule)
system.mem_ctrl.dram.rank0.averagePower    600.196316                       # Core power per rank (mW) (Watt)
system.mem_ctrl.dram.rank0.totalIdleTime            0                       # Total Idle time Per DRAM Rank (Tick)
system.mem_ctrl.dram.rank0.pwrStateTime::IDLE   9893217750                       # Time in different power states (Tick)
system.mem_ctrl.dram.rank0.pwrStateTime::REF    919880000                       # Time in different power states (Tick)
system.mem_ctrl.dram.rank0.pwrStateTime::SREF            0                       # Time in different power states (Tick)
system.mem_ctrl.dram.rank0.pwrStateTime::PRE_PDN            0                       # Time in different power states (Tick)
system.mem_ctrl.dram.rank0.pwrStateTime::ACT  16736968250                       # Time in different power states (Tick)
system.mem_ctrl.dram.rank0.pwrStateTime::ACT_PDN            0                       # Time in different power states (Tick)
system.mem_ctrl.dram.rank1.actEnergy        176258040                       # Energy for activate commands per rank (pJ) (Joule)
system.mem_ctrl.dram.rank1.preEnergy         93668190                       # Energy for precharge commands per rank (pJ) (Joule)
system.mem_ctrl.dram.rank1.readEnergy      1895441520                       # Energy for read commands per rank (pJ) (Joule)
system.mem_ctrl.dram.rank1.writeEnergy      346002480                       # Energy for write commands per rank (pJ) (Joule)
system.mem_ctrl.dram.rank1.refreshEnergy 2174596320.000000                       # Energy for refresh commands per rank (pJ) (Joule)
system.mem_ctrl.dram.rank1.actBackEnergy   7980721050                       # Energy for active background per rank (pJ) (Joule)
system.mem_ctrl.dram.rank1.preBackEnergy   3858618240                       # Energy for precharge background per rank (pJ) (Joule)
system.mem_ctrl.dram.rank1.actPowerDownEnergy            0                       # Energy for active power-down per rank (pJ) (Joule)
system.mem_ctrl.dram.rank1.prePowerDownEnergy            0                       # Energy for precharge power-down per rank (pJ) (Joule)
system.mem_ctrl.dram.rank1.selfRefreshEnergy            0                       # Energy for self refresh per rank (pJ) (Joule)
system.mem_ctrl.dram.rank1.totalEnergy    16525305840                       # Total energy per rank (pJ) (Joule)
system.mem_ctrl.dram.rank1.averagePower    599.828176                       # Core power per rank (mW) (Watt)
system.mem_ctrl.dram.rank1.totalIdleTime            0                       # Total Idle time Per DRAM Rank (Tick)
system.mem_ctrl.dram.rank1.pwrStateTime::IDLE   9906202750                       # Time in different power states (Tick)
system.mem_ctrl.dram.rank1.pwrStateTime::REF    919880000                       # Time in different power states (Tick)
system.mem_ctrl.dram.rank1.pwrStateTime::SREF            0                       # Time in different power states (Tick)
system.mem_ctrl.dram.rank1.pwrStateTime::PRE_PDN            0                       # Time in different power states (Tick)
system.mem_ctrl.dram.rank1.pwrStateTime::ACT  16723983250                       # Time in different power states (Tick)
system.mem_ctrl.dram.rank1.pwrStateTime::ACT_PDN            0                       # Time in different power states (Tick)
system.mem_ctrl.power_state.pwrStateResidencyTicks::UNDEFINED  27550066000                       # Cumulative time (in ticks) in various power states (Tick)
system.membus.transDist::ReadResp              400058                       # Transaction distribution (Count)
system.membus.transDist::WritebackDirty        132428                       # Transaction distribution (Count)
system.membus.transDist::CleanEvict            398512                       # Transaction distribution (Count)
system.membus.transDist::UpgradeReq                 1                       # Transaction distribution (Count)
system.membus.transDist::ReadExReq             131907                       # Transaction distribution (Count)
system.membus.transDist::ReadExResp            131907                       # Transaction distribution (Count)
system.membus.transDist::ReadSharedReq         400059                       # Transaction distribution (Count)
system.membus.pktCount_system.cpu.icache.mem_side_port::system.mem_ctrl.port        10032                       # Packet count per connected requestor and responder (Count)
system.membus.pktCount_system.cpu.icache.mem_side_port::total        10032                       # Packet count per connected requestor and responder (Count)
system.membus.pktCount_system.cpu.dcache.mem_side_port::system.mem_ctrl.port      1584839                       # Packet count per connected requestor and responder (Count)
system.membus.pktCount_system.cpu.dcache.mem_side_port::total      1584839                       # Packet count per connected requestor and responder (Count)
system.membus.pktCount::total                 1594871                       # Packet count per connected requestor and responder (Count)
system.membus.pktSize_system.cpu.icache.mem_side_port::system.mem_ctrl.port       224896                       # Cumulative packet size per connected requestor and responder (Byte)
system.membus.pktSize_system.cpu.icache.mem_side_port::total       224896                       # Cumulative packet size per connected requestor and responder (Byte)
system.membus.pktSize_system.cpu.dcache.mem_side_port::system.mem_ctrl.port     42296192                       # Cumulative packet size per connected requestor and responder (Byte)
system.membus.pktSize_system.cpu.dcache.mem_side_port::total     42296192                       # Cumulative packet size per connected requestor and responder (Byte)
system.membus.pktSize::total                 42521088                       # Cumulative packet size per connected requestor and responder (Byte)
system.membus.snoops                                1                       # Total snoops (Count)
system.membus.snoopTraffic                         64                       # Total snoop traffic (Byte)
system.membus.snoopFanout::samples             531967                       # Request fanout histogram (Count)
system.membus.snoopFanout::mean              0.000058                       # Request fanout histogram (Count)
system.membus.snoopFanout::stdev             0.007634                       # Request fanout histogram (Count)
system.membus.snoopFanout::underflows               0      0.00%      0.00% # Request fanout histogram (Count)
system.membus.snoopFanout::0                   531936     99.99%     99.99% # Request fanout histogram (Count)
system.membus.snoopFanout::1                       31      0.01%    100.00% # Request fanout histogram (Count)
system.membus.snoopFanout::2                        0      0.00%    100.00% # Request fanout histogram (Count)
system.membus.snoopFanout::overflows                0      0.00%    100.00% # Request fanout histogram (Count)
system.membus.snoopFanout::min_value                0                       # Request fanout histogram (Count)
system.membus.snoopFanout::max_value                1                       # Request fanout histogram (Count)
system.membus.snoopFanout::total               531967                       # Request fanout histogram (Count)
system.membus.power_state.pwrStateResidencyTicks::UNDEFINED  27550066000                       # Cumulative time (in ticks) in various power states (Tick)
system.membus.reqLayer4.occupancy          1592619000                       # Layer occupancy (ticks) (Tick)
system.membus.reqLayer4.utilization               0.1                       # Layer utilization (Ratio)
system.membus.respLayer0.occupancy           18762749                       # Layer occupancy (ticks) (Tick)
system.membus.respLayer0.utilization              0.0                       # Layer utilization (Ratio)
system.membus.respLayer1.occupancy         2766955250                       # Layer occupancy (ticks) (Tick)
system.membus.respLayer1.utilization              0.1                       # Layer utilization (Ratio)
system.membus.snoop_filter.totRequests        1062907                       # Total number of requests made to the snoop filter. (Count)
system.membus.snoop_filter.hitSingleRequests       530951                       # Number of requests hitting in the snoop filter with a single holder of the requested data. (Count)
system.membus.snoop_filter.hitMultiRequests           20                       # Number of requests hitting in the snoop filter with multiple (>1) holders of the requested data. (Count)
system.membus.snoop_filter.totSnoops                0                       # Total number of snoops made to the snoop filter. (Count)
system.membus.snoop_filter.hitSingleSnoops            0                       # Number of snoops hitting in the snoop filter with a single holder of the requested data. (Count)
system.membus.snoop_filter.hitMultiSnoops            0                       # Number of snoops hitting in the snoop filter with multiple (>1) holders of the requested data. (Count)
system.workload.inst.arm                            0                       # number of arm instructions executed (Count)
system.workload.inst.quiesce                        0                       # number of quiesce instructions executed (Count)

---------- End Simulation Statistics   ----------
